Version 4
SHEET 1 880 680
WIRE 464 16 432 16
WIRE -80 96 -128 96
WIRE -48 96 -80 96
WIRE -16 96 -48 96
WIRE 96 96 64 96
WIRE 160 96 96 96
WIRE 272 112 224 112
WIRE 464 112 464 16
WIRE 464 112 432 112
WIRE 576 112 464 112
WIRE 160 128 112 128
WIRE 688 128 640 128
WIRE 704 128 688 128
WIRE 576 144 528 144
WIRE -80 176 -128 176
WIRE -16 176 -80 176
WIRE 96 176 96 96
WIRE 96 176 64 176
WIRE 464 208 464 112
WIRE 464 208 432 208
WIRE 528 208 528 144
WIRE 688 208 688 128
WIRE 688 208 528 208
WIRE 112 224 112 128
WIRE 160 224 112 224
WIRE 272 224 272 112
WIRE 272 224 240 224
WIRE -48 336 -48 96
WIRE -16 336 -48 336
WIRE 112 336 64 336
WIRE 112 368 112 336
WIRE 160 368 112 368
WIRE 272 384 224 384
WIRE 160 400 112 400
WIRE -80 432 -80 176
WIRE -16 432 -80 432
WIRE 112 432 112 400
WIRE 112 432 64 432
WIRE 112 496 112 432
WIRE 160 496 112 496
WIRE 272 496 272 384
WIRE 272 496 240 496
FLAG -80 96 L
FLAG -80 176 R
FLAG -208 96 0
FLAG -208 176 0
FLAG 272 112 L+R
FLAG 272 16 0
FLAG 704 128 FM
IOPIN 704 128 Out
FLAG 272 384 L-R
SYMBOL res 80 80 R90
WINDOW 0 0 56 VBottom 2
WINDOW 3 32 56 VTop 2
SYMATTR InstName R1
SYMATTR Value 10K
SYMBOL res 80 160 R90
WINDOW 0 0 56 VBottom 2
WINDOW 3 32 56 VTop 2
SYMATTR InstName R2
SYMATTR Value 10K
SYMBOL Misc\\signal -112 96 R90
WINDOW 0 -32 56 VBottom 2
WINDOW 3 88 56 VTop 2
SYMATTR InstName V1
SYMATTR Value SINE(0 1 1000)
SYMBOL Misc\\signal -112 176 R90
WINDOW 0 -32 56 VBottom 2
WINDOW 3 88 56 VTop 2
SYMATTR InstName V2
SYMATTR Value SINE(0 1 1500)
SYMBOL AutoGenerated\\opampIdeal 192 112 R0
SYMATTR InstName U1
SYMBOL res 448 96 R90
WINDOW 0 0 56 VBottom 2
WINDOW 3 32 56 VTop 2
SYMATTR InstName R6
SYMATTR Value 10K
SYMBOL res 448 0 R90
WINDOW 0 0 56 VBottom 2
WINDOW 3 32 56 VTop 2
SYMATTR InstName R7
SYMATTR Value 10K
SYMBOL Misc\\signal 368 16 R90
WINDOW 0 -32 56 VBottom 2
WINDOW 3 32 56 VTop 2
WINDOW 123 0 0 Left 2
WINDOW 39 0 0 Left 2
SYMATTR InstName V3
SYMATTR Value AC 1
SYMBOL AutoGenerated\\opampIdeal 608 128 R0
SYMATTR InstName U2
SYMBOL AutoGenerated\\opampIdeal 192 384 R0
SYMATTR InstName U3
SYMBOL res 80 320 R90
WINDOW 0 0 56 VBottom 2
WINDOW 3 32 56 VTop 2
SYMATTR InstName R4
SYMATTR Value 10K
SYMBOL res 80 416 R90
WINDOW 0 0 56 VBottom 2
WINDOW 3 32 56 VTop 2
SYMATTR InstName R5
SYMATTR Value 10K
SYMBOL res 256 480 R90
WINDOW 0 0 56 VBottom 2
WINDOW 3 32 56 VTop 2
SYMATTR InstName R3
SYMATTR Value 10K
SYMBOL res 448 192 R90
WINDOW 0 0 56 VBottom 2
WINDOW 3 32 56 VTop 2
SYMATTR InstName R8
SYMATTR Value 10K
SYMBOL res 256 208 R90
WINDOW 0 0 56 VBottom 2
WINDOW 3 32 56 VTop 2
SYMATTR InstName R9
SYMATTR Value 10K
TEXT -228 546 Left 2 !.ac dec 100 200 20000
