Version 4
SHEET 1 880 680
WIRE 592 -144 192 -144
WIRE 112 -64 112 -144
WIRE 208 -64 192 -64
WIRE 112 16 112 -64
WIRE 128 16 112 16
WIRE 208 16 208 -64
WIRE 208 16 192 16
WIRE 304 16 288 16
WIRE 384 16 368 16
WIRE 592 16 592 -144
WIRE 592 16 544 16
WIRE 112 112 112 16
WIRE 112 112 80 112
WIRE 128 112 112 112
WIRE 208 128 208 16
WIRE 208 128 192 128
WIRE 288 128 288 16
WIRE 304 128 288 128
WIRE 384 144 384 16
WIRE 384 144 368 144
WIRE 464 144 464 16
WIRE 480 144 464 144
WIRE 592 160 592 16
WIRE 592 160 544 160
FLAG 0 112 vin
IOPIN 0 112 In
FLAG 0 192 0
FLAG 128 144 0
FLAG 304 160 0
FLAG 480 176 0
FLAG 592 160 vout
IOPIN 592 160 Out
FLAG 384 144 vout2
FLAG 592 240 0
SYMBOL res 96 96 R90
WINDOW 0 0 56 VBottom 2
WINDOW 3 32 56 VTop 2
SYMATTR InstName R1
SYMATTR Value 6.1426K
SYMBOL Misc\\signal 0 96 R0
WINDOW 123 24 188 Left 2
WINDOW 39 0 0 Left 2
WINDOW 3 24 160 Left 2
SYMATTR Value2 AC 1
SYMATTR InstName V1
SYMATTR Value ""
SYMBOL AutoGenerated\\opampIdeal 160 128 R0
SYMATTR InstName U1
SYMBOL cap 192 0 R90
WINDOW 0 0 32 VBottom 2
WINDOW 3 32 32 VTop 2
SYMATTR InstName C1
SYMATTR Value 1e-8
SYMBOL res 208 -80 R90
WINDOW 0 0 56 VBottom 2
WINDOW 3 32 56 VTop 2
SYMATTR InstName R2
SYMATTR Value 26.648K
SYMBOL res 208 -160 R90
WINDOW 0 0 56 VBottom 2
WINDOW 3 32 56 VTop 2
SYMATTR InstName R3
SYMATTR Value 8.6869K
SYMBOL AutoGenerated\\opampIdeal 336 144 R0
SYMATTR InstName U2
SYMBOL AutoGenerated\\opampIdeal 512 160 R0
SYMATTR InstName U3
SYMBOL res 304 112 R90
WINDOW 0 0 56 VBottom 2
WINDOW 3 32 56 VTop 2
SYMATTR InstName R4
SYMATTR Value 8.6869K
SYMBOL res 480 128 R90
WINDOW 0 0 56 VBottom 2
WINDOW 3 32 56 VTop 2
SYMATTR InstName R5
SYMATTR Value 8.6869K
SYMBOL res 560 32 M270
WINDOW 0 32 56 VTop 2
WINDOW 3 0 56 VBottom 2
SYMATTR InstName R6
SYMATTR Value 8.6869K
SYMBOL cap 368 0 R90
WINDOW 0 0 32 VBottom 2
WINDOW 3 32 32 VTop 2
SYMATTR InstName C2
SYMATTR Value 1e-8
SYMBOL current 592 160 R0
WINDOW 123 24 108 Left 2
WINDOW 39 0 0 Left 2
SYMATTR InstName I1
SYMATTR Value ""
SYMATTR Value2 AC 1
TEXT -96 248 Left 2 !.ac dec 100 100 1MEG
