Version 4
SHEET 1 880 680
FLAG 160 160 0
FLAG 240 160 0
FLAG 320 160 0
FLAG 400 176 0
FLAG 0 176 0
SYMBOL res 96 80 R90
WINDOW 0 0 56 VBottom 2
WINDOW 3 32 56 VTop 2
SYMATTR InstName R1
SYMBOL Misc\\signal 0 80 R0
WINDOW 123 0 0 Left 2
WINDOW 39 0 0 Left 2
SYMATTR InstName V1
SYMATTR Value ""
SYMBOL ind 64 112 R270
WINDOW 0 32 56 VTop 2
WINDOW 3 5 56 VBottom 2
SYMATTR InstName L1
SYMBOL ind 144 112 R270
WINDOW 0 32 56 VTop 2
WINDOW 3 5 56 VBottom 2
SYMATTR InstName L2
SYMBOL ind 224 112 R270
WINDOW 0 32 56 VTop 2
WINDOW 3 5 56 VBottom 2
SYMATTR InstName L3
SYMBOL ind 304 112 R270
WINDOW 0 32 56 VTop 2
WINDOW 3 5 56 VBottom 2
SYMATTR InstName L4
SYMBOL cap 144 96 R0
SYMATTR InstName C1
SYMBOL cap 224 96 R0
SYMATTR InstName C2
SYMBOL cap 304 96 R0
SYMATTR InstName C3
SYMBOL res 384 80 R0
SYMATTR InstName R2
